
This summary information was generated by AeroDyn on 11-Oct-2022 at 12:33:51.

======  General Options  ============================================================================
            2  WakeMod        - Type of wake/induction model: Dynamic Blade-Element/Momentum Theory
            2  AFAeroMod      - Type of blade airfoil aerodynamics model: Beddoes-Leishman unsteady model
            0  TwrPotent      - Type tower influence on wind based on potential flow around the tower: none
            F  TwrShadow      - Calculate tower influence on wind based on downstream tower shadow? No
            F  TwrAero        - Calculate tower aerodynamic loads? No
======  Blade-Element/Momentum Theory Options  ======================================================
            1  SkewMod        - Type of skewed-wake correction model: uncoupled
            F  TipLoss        - Use the Prandtl tip-loss model? No
            F  HubLoss        - Use the Prandtl hub-loss model? No
            T  TanInd         - Include tangential induction in BEMT calculations? Yes
            T  AIDrag         - Include the drag term in the axial-induction calculation? Yes
            T  AIDrag         - Include the drag term in the tangential-induction calculation? Yes
   5.0000E-10  IndToler       - Convergence tolerance for BEM induction factors (radians)
            1  DBEMT_Mod      - Type of dynamic BEMT (DBEMT) model: constant tau1
   4.0000E+00  tau1_const     - Time constant for DBEMT (s)
======  Beddoes-Leishman Unsteady Airfoil Aerodynamics Options  =====================================
            2  UAMod          - Unsteady Aero Model: Gonzalez's variant (changes in Cn, Cc, and Cm)
            T  FLookup        - Use a lookup for f'? Yes
======  Outputs  ====================================================================================
            0  NBlOuts        - Number of blade nodes selected for output
            0  NTwOuts        - Number of tower nodes selected for output
               Requested Output Channels:
               Col   Parameter  Units
               ----  ---------  -----
                  0  Time                 (s)                 
                  1  RtAeroFxh            (N)                 
                  2  RtAeroMxh            (N-m)               
                  3  B1Azimuth            (deg)               
                  4  B2Azimuth            (deg)               
                  5  B3Azimuth            (deg)               


               Requested Output Channels at each blade station:
               Col   Parameter       Units
               ----  --------------  -----
                  1  Fx                   (N/m)               
                  2  Fy                   (N/m)               
                  3  Vx                   (m/s)               
                  4  Vy                   (m/s)               
                  5  Vindx                (m/s)               
                  6  Vindy                (m/s)               
                  7  VRel                 (m/s)               
                  8  Alpha                (deg)               
                  9  Theta                (deg)               
                 10  Phi                  (deg)               
                 11  Cl                   (-)                 
                 12  Cd                   (-)                 
                 13  Cm                   (-)                 
                 14  Cn                   (-)                 
                 15  Ct                   (-)                 
