
This summary information was generated by AeroDyn on 06-Apr-2023 at 12:33:25.

======  General Options  ============================================================================
            2  WakeMod        - Type of wake/induction model: Dynamic Blade-Element/Momentum Theory
            2  AFAeroMod      - Type of blade airfoil aerodynamics model: Beddoes-Leishman unsteady model
            0  TwrPotent      - Type of tower influence on wind based on potential flow around the tower: none
            0  TwrShadow      - Type of tower influence on wind based on downstream tower shadow: none
            F  TwrAero        - Calculate tower aerodynamic loads? No
======  Blade-Element/Momentum Theory Options  ======================================================
            1  SkewMod        - Type of skewed-wake correction model: uncoupled
            F  TipLoss        - Use the Prandtl tip-loss model? No
            F  HubLoss        - Use the Prandtl hub-loss model? No
            T  TanInd         - Include tangential induction in BEMT calculations? Yes
            T  AIDrag         - Include the drag term in the axial-induction calculation? Yes
            T  TIDrag         - Include the drag term in the tangential-induction calculation? Yes
   1.0000E-05  IndToler       - Convergence tolerance for BEM induction factors (radians)
            1  DBEMT_Mod      - Type of dynamic BEMT (DBEMT) model: constant tau1
   4.0000E+00  tau1_const     - Time constant for DBEMT (s)
======  Beddoes-Leishman Unsteady Airfoil Aerodynamics Options  =====================================
            2  UAMod          - Unsteady Aero Model: Gonzalez's variant (changes in Cn, Cc, and Cm)
            T  FLookup        - Use a lookup for f'? Yes
======  Outputs  ====================================================================================
            0  NBlOuts        - Number of blade nodes selected for output
            0  NTwOuts        - Number of tower nodes selected for output

               Requested Output Channels:
                Col   Parameter            Units               
                ---   ---------------      ---------------     
                  0   Time                 (s)                 


               Requested Output Channels at each blade station:
                Col   Parameter            Units               
                ---   ---------------      ---------------     
                  1   Fx                   (N/m)               
                  2   Fy                   (N/m)               
                  3   Vx                   (m/s)               
                  4   Vy                   (m/s)               
                  5   Vindx                (m/s)               
                  6   Vindy                (m/s)               
                  7   VRel                 (m/s)               
                  8   VDisx                (m/s)               
                  9   VDisy                (m/s)               
                 10   Alpha                (deg)               
                 11   Theta                (deg)               
                 12   Phi                  (deg)               
                 13   Cl                   (-)                 
                 14   Cd                   (-)                 
                 15   Cm                   (-)                 
                 16   Cn                   (-)                 
                 17   Ct                   (-)                 
